%nprocshared=4
%mem=4gb
#  oniom(external='MultiState/run-1state.sh':b3lyp/3-21g)
   opt(nomicro)
   freq

ONIOM (DO SP FIRST.)

0  1
 H    0.3024590228 -0.9512157049 -0.0725310522    H
 H    0.2227271723  0.5603684149  0.8807394250    H
 H    0.3097748799  0.6189104482 -0.9158917578    H
 H   -1.1733301821  0.0445417780 -0.1114868862    H
 O    0.9579737719  1.7084389296  2.5318114793    L
 H    1.8695243907  1.6278675794  2.1371510062    L
 H    0.5742026936  2.5180826836  2.0954956963    L
 C   -0.0813751890  0.0730284712 -0.0510870804    H


